Version 4
SHEET 1 1920 1636
WIRE 0 -64 -80 -64
WIRE 192 -64 0 -64
WIRE 352 -64 192 -64
WIRE 720 -64 352 -64
WIRE 752 -64 720 -64
WIRE 864 -64 848 -64
WIRE 880 -64 864 -64
WIRE 1008 -64 976 -64
WIRE 1168 -64 1008 -64
WIRE 1296 -64 1168 -64
WIRE 1536 -64 1296 -64
WIRE 1664 -64 1536 -64
WIRE 1664 -48 1664 -64
WIRE 0 32 0 -64
WIRE 832 32 832 -16
WIRE 896 32 896 -16
WIRE 896 32 832 32
WIRE 1536 32 1536 -64
WIRE 1664 32 1664 -48
WIRE 1168 48 1168 -64
WIRE 1296 48 1296 -64
WIRE 576 64 560 64
WIRE 672 64 640 64
WIRE 864 64 864 -64
WIRE 864 64 672 64
WIRE 720 96 720 -64
WIRE 784 96 720 96
WIRE 448 128 448 112
WIRE 560 128 560 64
WIRE 672 128 672 64
WIRE 784 128 784 96
WIRE 896 128 896 32
WIRE 1008 128 1008 -64
WIRE 1536 128 1536 96
WIRE 1664 128 1664 112
WIRE 0 144 0 112
WIRE 352 160 352 -64
WIRE 496 192 448 192
WIRE 1168 192 1168 128
WIRE 352 256 352 240
WIRE 480 256 352 256
WIRE 352 272 352 256
WIRE 480 272 480 256
WIRE 496 272 480 272
WIRE 1120 272 1072 272
WIRE 1168 272 1168 256
WIRE 1168 272 1120 272
WIRE 1296 272 1296 128
WIRE 496 352 480 352
WIRE 1216 352 1072 352
WIRE 1296 352 1296 336
WIRE 1296 352 1216 352
WIRE 352 368 352 352
WIRE 480 368 480 352
WIRE 480 368 352 368
WIRE 352 384 352 368
WIRE 496 432 448 432
WIRE 448 480 448 432
WIRE 352 496 352 464
WIRE 784 496 784 464
FLAG 0 144 0
FLAG 448 480 0
FLAG 784 496 0
FLAG 1664 128 0
FLAG 1536 128 0
FLAG -80 -64 V_BATTA
FLAG 1664 -48 V_LOAD
FLAG 448 112 0
FLAG 352 496 0
FLAG 1216 416 0
FLAG 1120 208 0
FLAG 192 0 0
SYMBOL voltage 0 16 R0
WINDOW 123 0 0 Left 2
WINDOW 39 24 124 Left 2
SYMATTR SpiceLine Rser=0.050
SYMATTR Value PULSE(0 4.2 0.5 1u 1u 1)
SYMATTR InstName V_BATTA
SYMBOL nmos 976 -16 M270
WINDOW 0 85 40 VTop 2
WINDOW 3 68 93 VLeft 2
SYMATTR InstName Q1
SYMATTR Value Si4864DY
SYMBOL cap 432 192 M180
WINDOW 0 24 64 Left 2
WINDOW 3 24 8 Left 2
SYMATTR InstName C1
SYMATTR Value .1µ
SYMBOL LTC4352 784 304 R0
WINDOW 0 4 -51 Center 2
WINDOW 3 10 70 Center 2
SYMATTR InstName U1
SYMBOL cap 576 48 M90
WINDOW 0 0 32 VBottom 2
WINDOW 3 32 32 VTop 2
SYMATTR InstName C2
SYMATTR Value .1µ
SYMBOL res 1152 32 R0
WINDOW 0 38 25 Left 2
SYMATTR InstName R1
SYMATTR Value 750
SYMBOL res 1280 32 R0
SYMATTR InstName R2
SYMATTR Value 750
SYMBOL cap 1520 96 M180
WINDOW 0 24 64 Left 2
WINDOW 3 24 8 Left 2
SYMATTR InstName C9
SYMATTR Value 100µ
SYMBOL LED 1152 192 R0
SYMATTR InstName D_nSTATA
SYMATTR Value NSPW500BS
SYMBOL LED 1280 272 R0
SYMATTR InstName D_nFAULTA
SYMATTR Value NSPW500BS
SYMBOL res 336 256 R0
SYMATTR InstName R7
SYMATTR Value 3.6k
SYMBOL res 336 368 R0
SYMATTR InstName R8
SYMATTR Value 2k
SYMBOL res 336 144 R0
SYMATTR InstName R9
SYMATTR Value 27k
SYMBOL nmos 752 -16 R270
WINDOW 0 85 40 VTop 2
WINDOW 3 68 93 VLeft 2
SYMATTR InstName Q5
SYMATTR Value Si4864DY
SYMBOL cap 1200 416 M180
WINDOW 0 24 64 Left 2
WINDOW 3 24 8 Left 2
SYMATTR InstName C10
SYMATTR Value 0.1µ
SYMBOL cap 1104 272 M180
WINDOW 0 24 64 Left 2
WINDOW 3 24 8 Left 2
SYMATTR InstName C11
SYMATTR Value 0.1µ
SYMBOL current 1664 32 R0
WINDOW 123 0 0 Left 2
WINDOW 39 0 0 Left 2
SYMATTR InstName I1
SYMATTR Value 3
SYMBOL cap 176 0 M180
WINDOW 0 24 64 Left 2
WINDOW 3 24 8 Left 2
SYMATTR InstName C15
SYMATTR Value 10µ
TEXT -120 -144 Left 2 !.tran 3 uic
TEXT -120 -112 Left 2 !.options gmin=1e-10 abstol=1e-10 reltol=0.003 cshunt=1e-15
