Version 4
SHEET 1 3196 1924
WIRE 912 -16 560 -16
WIRE 1088 -16 1008 -16
WIRE 560 96 560 -16
WIRE 560 96 480 96
WIRE 608 96 560 96
WIRE 1088 96 1088 -16
WIRE 1088 96 864 96
WIRE 1216 96 1088 96
WIRE 1216 144 1216 96
WIRE 608 176 592 176
WIRE 992 176 992 32
WIRE 992 176 864 176
WIRE 160 208 160 176
WIRE 608 256 592 256
WIRE 1216 256 1216 224
WIRE 1216 256 864 256
WIRE 1376 256 1216 256
WIRE 160 336 160 288
WIRE 912 432 560 432
WIRE 1088 432 1088 96
WIRE 1088 432 1008 432
WIRE 1552 432 1088 432
WIRE 1696 432 1552 432
WIRE 560 544 560 432
WIRE 560 544 496 544
WIRE 608 544 560 544
WIRE 1088 544 1088 432
WIRE 1088 544 864 544
WIRE 1216 544 1088 544
WIRE 1216 592 1216 544
WIRE 1696 608 1696 432
WIRE 608 624 592 624
WIRE 992 624 992 480
WIRE 992 624 864 624
WIRE 1552 624 1552 432
WIRE 160 672 160 640
WIRE 608 704 592 704
WIRE 1216 704 1216 672
WIRE 1216 704 864 704
WIRE 1376 704 1216 704
WIRE 160 800 160 752
WIRE 1552 848 1552 688
WIRE 1696 848 1696 688
WIRE 912 880 560 880
WIRE 1088 880 1088 544
WIRE 1088 880 1008 880
WIRE 560 992 560 880
WIRE 560 992 496 992
WIRE 608 992 560 992
WIRE 1088 992 1088 880
WIRE 1088 992 864 992
WIRE 1216 992 1088 992
WIRE 1216 1040 1216 992
WIRE 608 1072 592 1072
WIRE 992 1072 992 928
WIRE 992 1072 864 1072
WIRE 160 1120 160 1088
WIRE 608 1152 592 1152
WIRE 1216 1152 1216 1120
WIRE 1216 1152 864 1152
WIRE 1376 1152 1216 1152
WIRE 160 1232 160 1200
FLAG 592 704 0
FLAG 592 624 0
FLAG 1552 848 0
FLAG 1696 848 0
FLAG 160 800 0
FLAG 160 336 0
FLAG 1696 432 V_OUT
FLAG 592 1072 0
FLAG 592 1152 0
FLAG 160 1232 0
FLAG 1376 704 STAT_A
IOPIN 1376 704 Out
FLAG 1376 1152 STAT_B
IOPIN 1376 1152 Out
FLAG 160 640 V_BATTA
IOPIN 160 640 In
FLAG 496 544 V_BATTA
IOPIN 496 544 In
FLAG 496 992 V_BATTB
IOPIN 496 992 In
FLAG 160 1088 V_BATTB
IOPIN 160 1088 In
FLAG 480 96 V_WALL
IOPIN 480 96 In
FLAG 160 176 V_WALL
IOPIN 160 176 In
FLAG 592 256 0
FLAG 592 176 0
FLAG 1376 256 STAT_WALL
IOPIN 1376 256 Out
SYMBOL POWERPRODUCTS\\LTC4412 736 624 R0
SYMATTR InstName U1
SYMBOL PMOS 912 480 R270
WINDOW 0 90 48 VCenter 2
WINDOW 3 63 45 VCenter 2
SYMATTR InstName Q1
SYMATTR Value FDC638P
SYMBOL cap 1536 624 R0
SYMATTR InstName C1
SYMATTR Value 10µ
SYMBOL res 1680 592 R0
SYMATTR InstName Rload
SYMATTR Value 1
SYMBOL VOLTAGE 160 656 R0
WINDOW 123 0 0 Left 2
WINDOW 39 0 0 Left 2
SYMATTR InstName V_BATTA
SYMATTR Value PWL(0 4.2 1 3.0 2.99 3.0 3 0)
SYMBOL voltage 160 192 R0
WINDOW 0 14 10 Left 2
WINDOW 3 10 104 Left 2
WINDOW 123 0 0 Left 2
WINDOW 39 0 0 Left 2
SYMATTR InstName V_WALL
SYMATTR Value PWL(0 0 3.99 0 4 5.5)
SYMBOL POWERPRODUCTS\\LTC4412 736 1072 R0
SYMATTR InstName U2
SYMBOL VOLTAGE 160 1104 R0
WINDOW 123 0 0 Left 2
WINDOW 39 0 0 Left 2
SYMATTR InstName V_BATTB
SYMATTR Value PWL(0 0 1.99 0 2 4.2)
SYMBOL PMOS 912 928 R270
WINDOW 0 90 48 VCenter 2
WINDOW 3 63 45 VCenter 2
SYMATTR InstName Q3
SYMATTR Value FDC638P
SYMBOL res 1200 1024 R0
SYMATTR InstName R1
SYMATTR Value 470k
SYMBOL res 1200 576 R0
SYMATTR InstName R2
SYMATTR Value 470k
SYMBOL POWERPRODUCTS\\LTC4412 736 176 R0
SYMATTR InstName U3
SYMBOL PMOS 912 32 R270
WINDOW 0 90 48 VCenter 2
WINDOW 3 63 45 VCenter 2
SYMATTR InstName Q2
SYMATTR Value FDC638P
SYMBOL res 1200 128 R0
SYMATTR InstName R3
SYMATTR Value 470k
TEXT 168 -40 Left 2 !.tran 6
